Circuit: * C:\Users\iiitk\Documents\2023KUEC2054\Draft1.asc

WARNING: Node NC_01 is floating.

Direct Newton iteration for .op point succeeded.

Date: Mon Sep 22 09:59:19 2025
Total elapsed time: 0.095 seconds.

tnom = 27
temp = 27
method = modified trap
totiter = 20741
traniter = 20735
tranpoints = 10215
accept = 10165
rejected = 50
matrix size = 9
fillins = 0
solver = Normal
Matrix Compiler1: 430 bytes object code size  0.1/0.1/[0.0]
Matrix Compiler2: 783 bytes object code size  0.1/0.1/[0.1]

