Circuit: * C:\Users\iiitk\Documents\2023KUEC2054\Full adder(2054).asc

Instance "m41": Length shorter than recommended for a level 1 MOSFET.
Instance "m41": Width narrower than recommended for a level 1 MOSFET.
Instance "m38": Length shorter than recommended for a level 1 MOSFET.
Instance "m38": Width narrower than recommended for a level 1 MOSFET.
Instance "m37": Length shorter than recommended for a level 1 MOSFET.
Instance "m37": Width narrower than recommended for a level 1 MOSFET.
Instance "m35": Length shorter than recommended for a level 1 MOSFET.
Instance "m35": Width narrower than recommended for a level 1 MOSFET.
Instance "m32": Length shorter than recommended for a level 1 MOSFET.
Instance "m32": Width narrower than recommended for a level 1 MOSFET.
Instance "m31": Length shorter than recommended for a level 1 MOSFET.
Instance "m31": Width narrower than recommended for a level 1 MOSFET.
Instance "m29": Length shorter than recommended for a level 1 MOSFET.
Instance "m29": Width narrower than recommended for a level 1 MOSFET.
Instance "m27": Length shorter than recommended for a level 1 MOSFET.
Instance "m27": Width narrower than recommended for a level 1 MOSFET.
Instance "m24": Length shorter than recommended for a level 1 MOSFET.
Instance "m24": Width narrower than recommended for a level 1 MOSFET.
Instance "m23": Length shorter than recommended for a level 1 MOSFET.
Instance "m23": Width narrower than recommended for a level 1 MOSFET.
Instance "m22": Length shorter than recommended for a level 1 MOSFET.
Instance "m22": Width narrower than recommended for a level 1 MOSFET.
Instance "m21": Length shorter than recommended for a level 1 MOSFET.
Instance "m21": Width narrower than recommended for a level 1 MOSFET.
Instance "m17": Length shorter than recommended for a level 1 MOSFET.
Instance "m17": Width narrower than recommended for a level 1 MOSFET.
Instance "m14": Length shorter than recommended for a level 1 MOSFET.
Instance "m14": Width narrower than recommended for a level 1 MOSFET.
Instance "m13": Length shorter than recommended for a level 1 MOSFET.
Instance "m13": Width narrower than recommended for a level 1 MOSFET.
Instance "m12": Length shorter than recommended for a level 1 MOSFET.
Instance "m12": Width narrower than recommended for a level 1 MOSFET.
Instance "m9": Length shorter than recommended for a level 1 MOSFET.
Instance "m9": Width narrower than recommended for a level 1 MOSFET.
Instance "m6": Length shorter than recommended for a level 1 MOSFET.
Instance "m6": Width narrower than recommended for a level 1 MOSFET.
Instance "m5": Length shorter than recommended for a level 1 MOSFET.
Instance "m5": Width narrower than recommended for a level 1 MOSFET.
Instance "m4": Length shorter than recommended for a level 1 MOSFET.
Instance "m4": Width narrower than recommended for a level 1 MOSFET.
Instance "m3": Length shorter than recommended for a level 1 MOSFET.
Instance "m3": Width narrower than recommended for a level 1 MOSFET.
Instance "m42": Length shorter than recommended for a level 1 MOSFET.
Instance "m42": Width narrower than recommended for a level 1 MOSFET.
Instance "m40": Length shorter than recommended for a level 1 MOSFET.
Instance "m40": Width narrower than recommended for a level 1 MOSFET.
Instance "m39": Length shorter than recommended for a level 1 MOSFET.
Instance "m39": Width narrower than recommended for a level 1 MOSFET.
Instance "m36": Length shorter than recommended for a level 1 MOSFET.
Instance "m36": Width narrower than recommended for a level 1 MOSFET.
Instance "m34": Length shorter than recommended for a level 1 MOSFET.
Instance "m34": Width narrower than recommended for a level 1 MOSFET.
Instance "m33": Length shorter than recommended for a level 1 MOSFET.
Instance "m33": Width narrower than recommended for a level 1 MOSFET.
Instance "m30": Length shorter than recommended for a level 1 MOSFET.
Instance "m30": Width narrower than recommended for a level 1 MOSFET.
Instance "m28": Length shorter than recommended for a level 1 MOSFET.
Instance "m28": Width narrower than recommended for a level 1 MOSFET.
Instance "m26": Length shorter than recommended for a level 1 MOSFET.
Instance "m26": Width narrower than recommended for a level 1 MOSFET.
Instance "m25": Length shorter than recommended for a level 1 MOSFET.
Instance "m25": Width narrower than recommended for a level 1 MOSFET.
Instance "m20": Length shorter than recommended for a level 1 MOSFET.
Instance "m20": Width narrower than recommended for a level 1 MOSFET.
Instance "m19": Length shorter than recommended for a level 1 MOSFET.
Instance "m19": Width narrower than recommended for a level 1 MOSFET.
Instance "m18": Length shorter than recommended for a level 1 MOSFET.
Instance "m18": Width narrower than recommended for a level 1 MOSFET.
Instance "m16": Length shorter than recommended for a level 1 MOSFET.
Instance "m16": Width narrower than recommended for a level 1 MOSFET.
Instance "m15": Length shorter than recommended for a level 1 MOSFET.
Instance "m15": Width narrower than recommended for a level 1 MOSFET.
Instance "m11": Length shorter than recommended for a level 1 MOSFET.
Instance "m11": Width narrower than recommended for a level 1 MOSFET.
Instance "m10": Length shorter than recommended for a level 1 MOSFET.
Instance "m10": Width narrower than recommended for a level 1 MOSFET.
Instance "m8": Length shorter than recommended for a level 1 MOSFET.
Instance "m8": Width narrower than recommended for a level 1 MOSFET.
Instance "m7": Length shorter than recommended for a level 1 MOSFET.
Instance "m7": Width narrower than recommended for a level 1 MOSFET.
Instance "m2": Length shorter than recommended for a level 1 MOSFET.
Instance "m2": Width narrower than recommended for a level 1 MOSFET.
Instance "m1": Length shorter than recommended for a level 1 MOSFET.
Instance "m1": Width narrower than recommended for a level 1 MOSFET.
Direct Newton iteration for .op point succeeded.
Heightened Def Con from 6.44817e-012 to 6.44817e-012
Heightened Def Con from 6.44817e-012 to 6.44817e-012
Heightened Def Con from 6.44817e-012 to 6.44817e-012
Heightened Def Con from 6.44817e-012 +to 6.44817e-012
Heightened Def Con from 6.44817e-012 +to 6.44817e-012
Heightened Def Con from 6.44817e-012 +to 6.44817e-012
Heightened Def Con from 6.44817e-012 +to 6.44817e-012
Heightened Def Con from 6.44817e-012 +to 6.44817e-012
Heightened Def Con from 6.44817e-012 +to 6.44817e-012
Heightened Def Con from 6.44817e-012 ++to 6.44817e-012
Heightened Def Con from 6.44817e-012 ++to 6.44817e-012
Heightened Def Con from 6.44817e-012 ++to 6.44817e-012
Heightened Def Con from 6.44817e-012 ++to 6.44817e-012
Heightened Def Con from 6.44817e-012 ++to 6.44817e-012
Heightened Def Con from 6.44817e-012 +++to 6.44817e-012
Heightened Def Con from 6.44817e-012 +++to 6.44817e-012
Heightened Def Con from 6.44817e-012 +++to 6.44817e-012
Heightened Def Con from 6.44817e-012 +++to 6.44817e-012
Heightened Def Con from 6.44817e-012 +++to 6.44817e-012
Heightened Def Con from 6.44817e-012 +++to 6.44817e-012
Heightened Def Con from 6.44817e-012 +++to 6.44817e-012
Heightened Def Con from 6.44817e-012 +++to 6.44817e-012
Heightened Def Con from 6.44817e-012 +++to 6.44817e-012
Heightened Def Con from 6.44817e-012 ++++to 6.44817e-012
Heightened Def Con from 6.44817e-012 ++++to 6.44817e-012
Heightened Def Con from 6.44817e-012 ++++to 6.44817e-012
Heightened Def Con from 6.44817e-012 ++++to 6.44817e-012
Heightened Def Con from 6.44817e-012 ++++to 6.44817e-012
Heightened Def Con from 6.44817e-012 ++++to 6.44817e-012
Heightened Def Con from 6.44817e-012 ++++to 6.44817e-012
Heightened Def Con from 6.44817e-012 ++++to 6.44817e-012
Heightened Def Con from 6.44817e-012 ++++to 6.44817e-012
Heightened Def Con from 6.44817e-012 ++++to 6.44817e-012
Heightened Def Con from 6.44817e-012 +++++to 6.44817e-012
Heightened Def Con from 6.44817e-012 +++++to 6.44817e-012
Heightened Def Con from 6.44817e-012 +++++to 6.44817e-012
Heightened Def Con from 6.44817e-012 +++++to 6.44817e-012
Heightened Def Con from 6.44817e-012 +++++to 6.44817e-012
Heightened Def Con from 6.44817e-012 +++++to 6.44817e-012
Heightened Def Con from 6.44817e-012 ++++++to 6.44817e-012
Heightened Def Con from 6.44817e-012 ++++++to 6.44817e-012
Heightened Def Con from 6.44817e-012 ++++++to 6.44817e-012
Heightened Def Con from 6.44817e-012 ++++++to 6.44818e-012
Heightened Def Con from 6.44818e-012 ++++++to 6.44818e-012
Heightened Def Con from 6.44818e-012 ++++++to 6.44818e-012
Heightened Def Con from 6.44818e-012 ++++++to 6.44818e-012
Heightened Def Con from 6.44818e-012 ++++++to 6.44818e-012
Heightened Def Con from 6.44818e-012 ++++++to 6.44818e-012
Heightened Def Con from 6.44818e-012 ++++++to 6.44818e-012
Heightened Def Con from 6.44818e-012 ++++++to 6.44818e-012
Heightened Def Con from 6.44818e-012 ++++++to 6.44818e-012
Heightened Def Con from 6.44818e-012 +++++++to 6.44818e-012
Heightened Def Con from 6.44818e-012 +++++++to 6.44818e-012
Heightened Def Con from 6.44818e-012 +++++++to 6.44818e-012
Heightened Def Con from 6.44818e-012 +++++++to 6.44818e-012
Heightened Def Con from 6.44818e-012 +++++++to 6.44818e-012
Heightened Def Con from 6.44818e-012 +++++++to 6.44818e-012
Heightened Def Con from 6.44818e-012 +++++++to 6.44818e-012
Heightened Def Con from 6.44818e-012 +++++++to 6.44819e-012
Heightened Def Con from 6.44819e-012 +++++++to 6.44819e-012
Heightened Def Con from 6.44819e-012 +++++++to 6.44819e-012
Heightened Def Con from 6.44819e-012 +++++++to 6.44819e-012
Heightened Def Con from 6.44819e-012 +++++++to 6.44819e-012
Heightened Def Con from 6.44819e-012 +++++++to 6.44819e-012
Heightened Def Con from 6.44819e-012 +++++++to 6.44819e-012
Heightened Def Con from 6.44819e-012 +++++++to 6.44819e-012
Heightened Def Con from 6.44819e-012 +++++++to 6.44819e-012
Heightened Def Con from 6.44819e-012 +++++++to 6.44819e-012
Heightened Def Con from 6.44819e-012 +++++++to 6.44819e-012
Heightened Def Con from 6.44819e-012 ++++++++to 6.4482e-012
Heightened Def Con from 6.4482e-012 ++++++++to 6.4482e-012
Heightened Def Con from 6.4482e-012 ++++++++to 6.4482e-012
Heightened Def Con from 6.4482e-012 ++++++++to 6.4482e-012
Heightened Def Con from 6.4482e-012 ++++++++to 6.4482e-012
Heightened Def Con from 6.4482e-012 ++++++++to 6.4482e-012
Heightened Def Con from 6.4482e-012 ++++++++to 6.4482e-012
Heightened Def Con from 6.4482e-012 ++++++++to 6.4482e-012
Heightened Def Con from 6.4482e-012 ++++++++to 6.4482e-012
Heightened Def Con from 6.4482e-012 ++++++++to 6.4482e-012
Heightened Def Con from 6.4482e-012 ++++++++to 6.4482e-012
Heightened Def Con from 6.4482e-012 ++++++++to 6.4482e-012
Heightened Def Con from 6.4482e-012 ++++++++to 6.4482e-012
Heightened Def Con from 6.4482e-012 ++++++++to 6.4482e-012
Heightened Def Con from 6.4482e-012 +++++++++to 6.44822e-012
Heightened Def Con from 6.44822e-012 +++++++++to 6.44823e-012
Heightened Def Con from 6.44823e-012 +++++++++to 6.44823e-012
Heightened Def Con from 6.44823e-012 +++++++++to 6.44824e-012
Heightened Def Con from 6.44824e-012 +++++++++to 6.44824e-012
Heightened Def Con from 6.44824e-012 +++++++++to 6.44824e-012
Heightened Def Con from 6.44824e-012 +++++++++to 6.44824e-012
Heightened Def Con from 6.44824e-012 +++++++++to 6.44824e-012
Heightened Def Con from 6.44824e-012 +++++++++to 6.44824e-012
Heightened Def Con from 6.44824e-012 +++++++++to 6.44824e-012
Heightened Def Con from 6.44824e-012 +++++++++to 6.44824e-012
Heightened Def Con from 6.44824e-012 +++++++++to 6.44824e-012
Heightened Def Con from 6.44824e-012 +++++++++to 6.44824e-012
Heightened Def Con from 6.44824e-012 +++++++++++to 6.44835e-012
Heightened Def Con from 6.44835e-012 +++++++++++to 6.44846e-012
Heightened Def Con from 6.44846e-012 +++++++++++to 6.44846e-012
Heightened Def Con from 6.44846e-012 +++++++++++to 6.44846e-012
Heightened Def Con from 6.44846e-012 +++++++++++to 6.44846e-012
Heightened Def Con from 6.44846e-012 +++++++++++to 6.44847e-012
Heightened Def Con from 6.44847e-012 +++++++++++to 6.44847e-012
Heightened Def Con from 6.44847e-012 +++++++++++to 6.44847e-012
Heightened Def Con from 6.44847e-012 +++++++++++to 6.44847e-012
Heightened Def Con from 6.44847e-012 +++++++++++to 6.44847e-012
Heightened Def Con from 6.44847e-012 +++++++++++to 6.44847e-012
Heightened Def Con from 6.44847e-012 +++++++++++to 6.44847e-012
Heightened Def Con from 6.44847e-012 +++++++++++to 6.44847e-012
Heightened Def Con from 6.44847e-012 +++++++++++to 6.44847e-012
Heightened Def Con from 6.44847e-012 +++++++++++to 6.44847e-012
Heightened Def Con from 6.44847e-012 +++++++++++to 6.44847e-012
Heightened Def Con from 6.44847e-012 +++++++++++to 6.44847e-012
Heightened Def Con from 6.44847e-012 ++++++++++++to 6.44858e-012
Heightened Def Con from 6.44858e-012 ++++++++++++to 6.44869e-012
Heightened Def Con from 6.44869e-012 ++++++++++++to 6.4487e-012
Heightened Def Con from 6.4487e-012 ++++++++++++to 6.44872e-012
Heightened Def Con from 6.44872e-012 ++++++++++++to 6.44873e-012
Heightened Def Con from 6.44873e-012 ++++++++++++to 6.44874e-012
Heightened Def Con from 6.44874e-012 ++++++++++++to 6.44876e-012
Heightened Def Con from 6.44876e-012 ++++++++++++to 6.44877e-012
Heightened Def Con from 6.44877e-012 ++++++++++++to 6.44877e-012
Heightened Def Con from 6.44877e-012 ++++++++++++to 6.44877e-012
Heightened Def Con from 6.44877e-012 ++++++++++++to 6.44878e-012
Heightened Def Con from 6.44878e-012 ++++++++++++to 6.44878e-012
Heightened Def Con from 6.44878e-012 ++++++++++++to 6.44878e-012
Heightened Def Con from 6.44878e-012 ++++++++++++to 6.44878e-012
Heightened Def Con from 6.44878e-012 ++++++++++++to 6.44878e-012
Heightened Def Con from 6.44878e-012 +++++++++++++to 6.44889e-012
Heightened Def Con from 6.44889e-012 +++++++++++++to 6.449e-012
Heightened Def Con from 6.449e-012 +++++++++++++to 6.44911e-012
Heightened Def Con from 6.44911e-012 +++++++++++++to 6.44921e-012
Heightened Def Con from 6.44921e-012 +++++++++++++to 6.44932e-012
Heightened Def Con from 6.44932e-012 +++++++++++++to 6.44934e-012
Heightened Def Con from 6.44934e-012 +++++++++++++to 6.44935e-012
Heightened Def Con from 6.44935e-012 +++++++++++++to 6.44936e-012
Heightened Def Con from 6.44936e-012 +++++++++++++to 6.44938e-012
Heightened Def Con from 6.44938e-012 +++++++++++++to 6.44939e-012
Heightened Def Con from 6.44939e-012 +++++++++++++to 6.4494e-012
Heightened Def Con from 6.4494e-012 +++++++++++++to 6.4494e-012
Heightened Def Con from 6.4494e-012 +++++++++++++to 6.4494e-012
Heightened Def Con from 6.4494e-012 +++++++++++++to 6.4494e-012
Heightened Def Con from 6.4494e-012 +++++++++++++to 6.4494e-012
Heightened Def Con from 6.4494e-012 ++++++++++++++to 6.45027e-012
Heightened Def Con from 6.45027e-012 ++++++++++++++to 6.45038e-012
Heightened Def Con from 6.45038e-012 ++++++++++++++to 6.45049e-012
Heightened Def Con from 6.45049e-012 ++++++++++++++to 6.4506e-012
Heightened Def Con from 6.4506e-012 ++++++++++++++to 6.45061e-012
Heightened Def Con from 6.45061e-012 ++++++++++++++to 6.45062e-012
Heightened Def Con from 6.45062e-012 ++++++++++++++to 6.45064e-012
Heightened Def Con from 6.45064e-012 ++++++++++++++to 6.45065e-012
Heightened Def Con from 6.45065e-012 ++++++++++++++to 6.45066e-012
Heightened Def Con from 6.45066e-012 ++++++++++++++to 6.45068e-012
Heightened Def Con from 6.45068e-012 ++++++++++++++to 6.45068e-012
Heightened Def Con from 6.45068e-012 ++++++++++++++to 6.45068e-012
Heightened Def Con from 6.45068e-012 ++++++++++++++to 6.45068e-012
Heightened Def Con from 6.45068e-012 ++++++++++++++to 6.45068e-012
Heightened Def Con from 6.45068e-012 ++++++++++++++to 6.45068e-012
Heightened Def Con from 6.45068e-012 ++++++++++++++to 6.45068e-012
Heightened Def Con from 6.45068e-012 ++++++++++++++to 6.45068e-012
Heightened Def Con from 6.45068e-012 ++++++++++++++to 6.45068e-012
Heightened Def Con from 6.45068e-012 ++++++++++++++to 6.45068e-012
Heightened Def Con from 6.45068e-012 +++++++++++++++to 6.45155e-012
Heightened Def Con from 6.45155e-012 +++++++++++++++to 6.45241e-012
Heightened Def Con from 6.45241e-012 +++++++++++++++to 6.45328e-012
Heightened Def Con from 6.45328e-012 +++++++++++++++to 6.45329e-012
Heightened Def Con from 6.45329e-012 +++++++++++++++to 6.45331e-012
Heightened Def Con from 6.45331e-012 +++++++++++++++to 6.45332e-012
Heightened Def Con from 6.45332e-012 +++++++++++++++to 6.45333e-012
Heightened Def Con from 6.45333e-012 +++++++++++++++to 6.45335e-012
Heightened Def Con from 6.45335e-012 +++++++++++++++to 6.45335e-012
Heightened Def Con from 6.45335e-012 +++++++++++++++to 6.45335e-012
Heightened Def Con from 6.45335e-012 +++++++++++++++to 6.45335e-012
Heightened Def Con from 6.45335e-012 +++++++++++++++to 6.45336e-012
Heightened Def Con from 6.45336e-012 +++++++++++++++to 6.45336e-012
Heightened Def Con from 6.45336e-012 +++++++++++++++to 6.45336e-012
Heightened Def Con from 6.45336e-012 +++++++++++++++to 6.45336e-012
Heightened Def Con from 6.45336e-012 +++++++++++++++to 6.45336e-012
Heightened Def Con from 6.45336e-012 +++++++++++++++to 6.45336e-012
Heightened Def Con from 6.45336e-012 +++++++++++++++to 6.45336e-012
Heightened Def Con from 6.45336e-012 +++++++++++++++to 6.45336e-012
Heightened Def Con from 6.45336e-012 +++++++++++++++to 6.45336e-012
Heightened Def Con from 6.45336e-012 +++++++++++++++to 6.45336e-012
Heightened Def Con from 6.45336e-012 +++++++++++++++to 6.45336e-012
Heightened Def Con from 6.45336e-012 +++++++++++++++to 6.45336e-012
Heightened Def Con from 6.45336e-012 +++++++++++++++to 6.45336e-012
Heightened Def Con from 6.45336e-012 +++++++++++++++to 6.45336e-012
Heightened Def Con from 6.45336e-012 +++++++++++++++to 6.45336e-012
Heightened Def Con from 6.45336e-012 +++++++++++++++to 6.45336e-012
Heightened Def Con from 6.45336e-012 ++++++++++++++++to 6.45423e-012
Heightened Def Con from 6.45423e-012 ++++++++++++++++to 6.45509e-012
Heightened Def Con from 6.45509e-012 ++++++++++++++++to 6.45596e-012
Heightened Def Con from 6.45596e-012 ++++++++++++++++to 6.45682e-012
Heightened Def Con from 6.45682e-012 ++++++++++++++++to 6.45769e-012
Heightened Def Con from 6.45769e-012 ++++++++++++++++to 6.45855e-012
Heightened Def Con from 6.45855e-012 ++++++++++++++++to 6.45866e-012
Heightened Def Con from 6.45866e-012 ++++++++++++++++to 6.45877e-012
Heightened Def Con from 6.45877e-012 ++++++++++++++++to 6.45888e-012
Heightened Def Con from 6.45888e-012 ++++++++++++++++to 6.45899e-012
Heightened Def Con from 6.45899e-012 ++++++++++++++++to 6.45909e-012
Heightened Def Con from 6.45909e-012 ++++++++++++++++to 6.4592e-012
Heightened Def Con from 6.4592e-012 ++++++++++++++++to 6.45922e-012
Heightened Def Con from 6.45922e-012 ++++++++++++++++to 6.45923e-012
Heightened Def Con from 6.45923e-012 ++++++++++++++++to 6.45924e-012
Heightened Def Con from 6.45924e-012 ++++++++++++++++to 6.45926e-012
Heightened Def Con from 6.45926e-012 ++++++++++++++++to 6.45926e-012
Heightened Def Con from 6.45926e-012 ++++++++++++++++to 6.45926e-012
Heightened Def Con from 6.45926e-012 ++++++++++++++++to 6.45926e-012
Heightened Def Con from 6.45926e-012 ++++++++++++++++to 6.45926e-012
Heightened Def Con from 6.45926e-012 ++++++++++++++++to 6.45926e-012
Heightened Def Con from 6.45926e-012 +++++++++++++++++to 6.46618e-012
Heightened Def Con from 6.46618e-012 +++++++++++++++++to 6.47308e-012
Heightened Def Con from 6.47308e-012 +++++++++++++++++to 6.47319e-012
Heightened Def Con from 6.47319e-012 +++++++++++++++++to 6.4733e-012
Heightened Def Con from 6.4733e-012 +++++++++++++++++to 6.4734e-012
Heightened Def Con from 6.4734e-012 +++++++++++++++++to 6.47351e-012
Heightened Def Con from 6.47351e-012 +++++++++++++++++to 6.47362e-012
Heightened Def Con from 6.47362e-012 +++++++++++++++++to 6.47363e-012
Heightened Def Con from 6.47363e-012 +++++++++++++++++to 6.47365e-012
Heightened Def Con from 6.47365e-012 +++++++++++++++++to 6.47366e-012
Heightened Def Con from 6.47366e-012 +++++++++++++++++to 6.47366e-012
Heightened Def Con from 6.47366e-012 +++++++++++++++++to 6.47366e-012
Heightened Def Con from 6.47366e-012 +++++++++++++++++to 6.47366e-012
Heightened Def Con from 6.47366e-012 +++++++++++++++++to 6.47366e-012
Heightened Def Con from 6.47366e-012 +++++++++++++++++to 6.47366e-012
Heightened Def Con from 6.47366e-012 +++++++++++++++++to 6.47366e-012
Heightened Def Con from 6.47366e-012 +++++++++++++++++to 6.47366e-012
Heightened Def Con from 6.47366e-012 +++++++++++++++++to 6.47366e-012
Heightened Def Con from 6.47366e-012 +++++++++++++++++to 6.47366e-012
Heightened Def Con from 6.47366e-012 +++++++++++++++++to 6.47366e-012
Heightened Def Con from 6.47366e-012 +++++++++++++++++to 6.47366e-012
Heightened Def Con from 6.47366e-012 ++++++++++++++++++to 6.48055e-012
Heightened Def Con from 6.48055e-012 ++++++++++++++++++to 6.92048e-012
Heightened Def Con from 7.51253e-012 ++++++++++to 7.51261e-012
Heightened Def Con from 2.00067e-008 +++++++to 2.00067e-008
Heightened Def Con from 3.00158e-008 +++++++++++to 3.00159e-008
Heightened Def Con from 6.00185e-008 +++++++++++++++++++++to 6.00187e-008
Heightened Def Con from 6.00187e-008 ++++++++++++++to 6.002e-008
Heightened Def Con from 7.00154e-008 +++++++++++to 7.00154e-008
Heightened Def Con from 8.00064e-008 to 8.00064e-008
Heightened Def Con from 8.00064e-008 to 8.00064e-008
Heightened Def Con from 8.00064e-008 to 8.00064e-008
Heightened Def Con from 8.00064e-008 to 8.00064e-008
Heightened Def Con from 8.00064e-008 +to 8.00064e-008
Heightened Def Con from 8.00064e-008 +to 8.00064e-008
Heightened Def Con from 8.00064e-008 +to 8.00064e-008
Heightened Def Con from 8.00064e-008 +to 8.00064e-008
Heightened Def Con from 8.00064e-008 +to 8.00064e-008
Heightened Def Con from 8.00064e-008 +to 8.00064e-008
Heightened Def Con from 8.00064e-008 +to 8.00064e-008
Heightened Def Con from 8.00064e-008 ++to 8.00064e-008
Heightened Def Con from 8.00064e-008 ++to 8.00064e-008
Heightened Def Con from 8.00064e-008 ++to 8.00064e-008
Heightened Def Con from 8.00064e-008 ++to 8.00064e-008
Heightened Def Con from 8.00064e-008 +++to 8.00064e-008
Heightened Def Con from 8.00064e-008 +++to 8.00064e-008
Heightened Def Con from 8.00064e-008 +++to 8.00064e-008
Heightened Def Con from 8.00064e-008 +++to 8.00064e-008
Heightened Def Con from 8.00064e-008 +++to 8.00064e-008
Heightened Def Con from 8.00064e-008 +++to 8.00064e-008
Heightened Def Con from 8.00064e-008 +++to 8.00064e-008
Heightened Def Con from 8.00064e-008 +++to 8.00064e-008
Heightened Def Con from 8.00064e-008 +++to 8.00064e-008
Heightened Def Con from 8.00064e-008 ++++to 8.00064e-008
Heightened Def Con from 8.00064e-008 ++++to 8.00064e-008
Heightened Def Con from 8.00064e-008 ++++to 8.00064e-008
Heightened Def Con from 8.00064e-008 ++++to 8.00064e-008
Heightened Def Con from 8.00064e-008 ++++to 8.00064e-008
Heightened Def Con from 8.00064e-008 ++++to 8.00064e-008
Heightened Def Con from 8.00064e-008 ++++to 8.00064e-008
Heightened Def Con from 8.00064e-008 ++++to 8.00064e-008
Heightened Def Con from 8.00064e-008 ++++to 8.00064e-008
Heightened Def Con from 8.00064e-008 ++++to 8.00064e-008
Heightened Def Con from 8.00064e-008 +++++to 8.00064e-008
Heightened Def Con from 8.00064e-008 +++++to 8.00064e-008
Heightened Def Con from 8.00064e-008 +++++to 8.00064e-008
Heightened Def Con from 8.00064e-008 +++++to 8.00064e-008
Heightened Def Con from 8.00064e-008 +++++to 8.00064e-008
Heightened Def Con from 8.00064e-008 +++++to 8.00064e-008
Heightened Def Con from 8.00064e-008 ++++++to 8.00064e-008
Heightened Def Con from 8.00064e-008 ++++++to 8.00064e-008
Heightened Def Con from 8.00064e-008 ++++++to 8.00064e-008
Heightened Def Con from 8.00064e-008 ++++++to 8.00064e-008
Heightened Def Con from 8.00064e-008 ++++++to 8.00064e-008
Heightened Def Con from 8.00064e-008 ++++++to 8.00064e-008
Heightened Def Con from 8.00064e-008 ++++++to 8.00064e-008
Heightened Def Con from 8.00064e-008 ++++++to 8.00064e-008
Heightened Def Con from 8.00064e-008 ++++++to 8.00064e-008
Heightened Def Con from 8.00064e-008 ++++++to 8.00064e-008
Heightened Def Con from 8.00064e-008 ++++++to 8.00064e-008
Heightened Def Con from 8.00064e-008 ++++++to 8.00064e-008
Heightened Def Con from 8.00064e-008 +++++++to 8.00064e-008
Heightened Def Con from 8.00064e-008 +++++++to 8.00064e-008
Heightened Def Con from 8.00064e-008 +++++++to 8.00064e-008
Heightened Def Con from 8.00064e-008 +++++++to 8.00064e-008
Heightened Def Con from 8.00064e-008 +++++++to 8.00064e-008
Heightened Def Con from 8.00064e-008 +++++++to 8.00064e-008
Heightened Def Con from 8.00064e-008 +++++++to 8.00064e-008
Heightened Def Con from 8.00064e-008 +++++++to 8.00064e-008
Heightened Def Con from 8.00064e-008 +++++++to 8.00064e-008
Heightened Def Con from 8.00064e-008 +++++++to 8.00064e-008
Heightened Def Con from 8.00064e-008 +++++++to 8.00064e-008
Heightened Def Con from 8.00064e-008 +++++++to 8.00064e-008
Heightened Def Con from 8.00064e-008 +++++++to 8.00064e-008
Heightened Def Con from 8.00064e-008 +++++++to 8.00064e-008
Heightened Def Con from 8.00064e-008 +++++++to 8.00064e-008
Heightened Def Con from 8.00064e-008 +++++++to 8.00064e-008
Heightened Def Con from 8.00064e-008 +++++++to 8.00064e-008
Heightened Def Con from 8.00064e-008 +++++++to 8.00064e-008
Heightened Def Con from 8.00064e-008 ++++++++to 8.00064e-008
Heightened Def Con from 8.00064e-008 ++++++++to 8.00064e-008
Heightened Def Con from 8.00064e-008 ++++++++to 8.00064e-008
Heightened Def Con from 8.00064e-008 ++++++++to 8.00064e-008
Heightened Def Con from 8.00064e-008 ++++++++to 8.00064e-008
Heightened Def Con from 8.00064e-008 ++++++++to 8.00064e-008
Heightened Def Con from 8.00064e-008 +++++++++to 8.00064e-008
Heightened Def Con from 8.00064e-008 +++++++++to 8.00064e-008
Heightened Def Con from 8.00064e-008 +++++++++to 8.00064e-008
Heightened Def Con from 8.00064e-008 +++++++++to 8.00064e-008
Heightened Def Con from 8.00064e-008 +++++++++to 8.00064e-008
Heightened Def Con from 8.00064e-008 +++++++++to 8.00064e-008
Heightened Def Con from 8.00064e-008 +++++++++to 8.00064e-008
Heightened Def Con from 8.00064e-008 +++++++++to 8.00064e-008
Heightened Def Con from 8.00064e-008 +++++++++to 8.00064e-008
Heightened Def Con from 8.00064e-008 +++++++++to 8.00064e-008
Heightened Def Con from 8.00064e-008 +++++++++to 8.00064e-008
Heightened Def Con from 8.00064e-008 +++++++++to 8.00064e-008
Heightened Def Con from 8.00064e-008 +++++++++to 8.00064e-008
Heightened Def Con from 8.00064e-008 +++++++++to 8.00064e-008
Heightened Def Con from 8.00064e-008 +++++++++++to 8.00064e-008
Heightened Def Con from 8.00064e-008 +++++++++++to 8.00064e-008
Heightened Def Con from 8.00064e-008 +++++++++++to 8.00064e-008
Heightened Def Con from 8.00064e-008 +++++++++++to 8.00064e-008
Heightened Def Con from 8.00064e-008 +++++++++++to 8.00064e-008
Heightened Def Con from 8.00064e-008 +++++++++++to 8.00064e-008
Heightened Def Con from 8.00064e-008 +++++++++++to 8.00064e-008
Heightened Def Con from 8.00064e-008 +++++++++++to 8.00064e-008
Heightened Def Con from 8.00064e-008 +++++++++++to 8.00064e-008
Heightened Def Con from 8.00064e-008 +++++++++++to 8.00064e-008
Heightened Def Con from 8.00064e-008 +++++++++++to 8.00064e-008
Heightened Def Con from 8.00064e-008 +++++++++++to 8.00064e-008
Heightened Def Con from 8.00064e-008 +++++++++++to 8.00064e-008
Heightened Def Con from 8.00064e-008 +++++++++++to 8.00064e-008
Heightened Def Con from 8.00064e-008 +++++++++++to 8.00064e-008
Heightened Def Con from 8.00064e-008 +++++++++++to 8.00064e-008
Heightened Def Con from 8.00064e-008 +++++++++++to 8.00064e-008
Heightened Def Con from 8.00064e-008 ++++++++++++to 8.00064e-008
Heightened Def Con from 8.00064e-008 ++++++++++++to 8.00064e-008
Heightened Def Con from 8.00064e-008 ++++++++++++to 8.00064e-008
Heightened Def Con from 8.00064e-008 ++++++++++++to 8.00064e-008
Heightened Def Con from 8.00064e-008 ++++++++++++to 8.00064e-008
Heightened Def Con from 8.00064e-008 ++++++++++++to 8.00064e-008
Heightened Def Con from 8.00064e-008 ++++++++++++to 8.00064e-008
Heightened Def Con from 8.00064e-008 ++++++++++++to 8.00064e-008
Heightened Def Con from 8.00064e-008 ++++++++++++to 8.00064e-008
Heightened Def Con from 8.00064e-008 ++++++++++++to 8.00064e-008
Heightened Def Con from 8.00064e-008 ++++++++++++to 8.00064e-008
Heightened Def Con from 8.00064e-008 ++++++++++++to 8.00064e-008
Heightened Def Con from 8.00064e-008 ++++++++++++to 8.00064e-008
Heightened Def Con from 8.00064e-008 ++++++++++++to 8.00064e-008
Heightened Def Con from 8.00064e-008 ++++++++++++to 8.00064e-008
Heightened Def Con from 8.00064e-008 +++++++++++++to 8.00064e-008
Heightened Def Con from 8.00064e-008 +++++++++++++to 8.00064e-008
Heightened Def Con from 8.00064e-008 +++++++++++++to 8.00064e-008
Heightened Def Con from 8.00064e-008 +++++++++++++to 8.00064e-008
Heightened Def Con from 8.00064e-008 +++++++++++++to 8.00064e-008
Heightened Def Con from 8.00064e-008 +++++++++++++to 8.00064e-008
Heightened Def Con from 8.00064e-008 +++++++++++++to 8.00064e-008
Heightened Def Con from 8.00064e-008 +++++++++++++to 8.00064e-008
Heightened Def Con from 8.00064e-008 +++++++++++++to 8.00064e-008
Heightened Def Con from 8.00064e-008 +++++++++++++to 8.00064e-008
Heightened Def Con from 8.00064e-008 +++++++++++++to 8.00064e-008
Heightened Def Con from 8.00064e-008 +++++++++++++to 8.00064e-008
Heightened Def Con from 8.00064e-008 +++++++++++++to 8.00064e-008
Heightened Def Con from 8.00064e-008 +++++++++++++to 8.00064e-008
Heightened Def Con from 8.00064e-008 +++++++++++++to 8.00064e-008
Heightened Def Con from 8.00064e-008 +++++++++++++to 8.00064e-008
Heightened Def Con from 8.00064e-008 ++++++++++++++to 8.00065e-008
Heightened Def Con from 8.00065e-008 ++++++++++++++to 8.00065e-008
Heightened Def Con from 8.00065e-008 ++++++++++++++to 8.00065e-008
Heightened Def Con from 8.00065e-008 ++++++++++++++to 8.00065e-008
Heightened Def Con from 8.00065e-008 ++++++++++++++to 8.00065e-008
Heightened Def Con from 8.00065e-008 ++++++++++++++to 8.00065e-008
Heightened Def Con from 8.00065e-008 ++++++++++++++to 8.00065e-008
Heightened Def Con from 8.00065e-008 ++++++++++++++to 8.00065e-008
Heightened Def Con from 8.00065e-008 ++++++++++++++to 8.00065e-008
Heightened Def Con from 8.00065e-008 ++++++++++++++to 8.00065e-008
Heightened Def Con from 8.00065e-008 ++++++++++++++to 8.00065e-008
Heightened Def Con from 8.00065e-008 ++++++++++++++to 8.00065e-008
Heightened Def Con from 8.00065e-008 ++++++++++++++to 8.00065e-008
Heightened Def Con from 8.00065e-008 ++++++++++++++to 8.00065e-008
Heightened Def Con from 8.00065e-008 ++++++++++++++to 8.00065e-008
Heightened Def Con from 8.00065e-008 ++++++++++++++to 8.00065e-008
Heightened Def Con from 8.00065e-008 ++++++++++++++to 8.00065e-008
Heightened Def Con from 8.00065e-008 ++++++++++++++to 8.00065e-008
Heightened Def Con from 8.00065e-008 ++++++++++++++to 8.00065e-008
Heightened Def Con from 8.00065e-008 +++++++++++++++to 8.00065e-008
Heightened Def Con from 8.00065e-008 +++++++++++++++to 8.00065e-008
Heightened Def Con from 8.00065e-008 +++++++++++++++to 8.00065e-008
Heightened Def Con from 8.00065e-008 +++++++++++++++to 8.00065e-008
Heightened Def Con from 8.00065e-008 +++++++++++++++to 8.00065e-008
Heightened Def Con from 8.00065e-008 +++++++++++++++to 8.00065e-008
Heightened Def Con from 8.00065e-008 +++++++++++++++to 8.00065e-008
Heightened Def Con from 8.00065e-008 +++++++++++++++to 8.00065e-008
Heightened Def Con from 8.00065e-008 +++++++++++++++to 8.00065e-008
Heightened Def Con from 8.00065e-008 +++++++++++++++to 8.00065e-008
Heightened Def Con from 8.00065e-008 +++++++++++++++to 8.00065e-008
Heightened Def Con from 8.00065e-008 +++++++++++++++to 8.00065e-008
Heightened Def Con from 8.00065e-008 +++++++++++++++to 8.00065e-008
Heightened Def Con from 8.00065e-008 +++++++++++++++to 8.00065e-008
Heightened Def Con from 8.00065e-008 +++++++++++++++to 8.00065e-008
Heightened Def Con from 8.00065e-008 +++++++++++++++to 8.00065e-008
Heightened Def Con from 8.00065e-008 +++++++++++++++to 8.00065e-008
Heightened Def Con from 8.00065e-008 +++++++++++++++to 8.00065e-008
Heightened Def Con from 8.00065e-008 +++++++++++++++to 8.00065e-008
Heightened Def Con from 8.00065e-008 +++++++++++++++to 8.00065e-008
Heightened Def Con from 8.00065e-008 +++++++++++++++to 8.00065e-008
Heightened Def Con from 8.00065e-008 +++++++++++++++to 8.00065e-008
Heightened Def Con from 8.00065e-008 +++++++++++++++to 8.00065e-008
Heightened Def Con from 8.00065e-008 +++++++++++++++to 8.00065e-008
Heightened Def Con from 8.00065e-008 +++++++++++++++to 8.00065e-008
Heightened Def Con from 8.00065e-008 ++++++++++++++++to 8.00065e-008
Heightened Def Con from 8.00065e-008 ++++++++++++++++to 8.00065e-008
Heightened Def Con from 8.00065e-008 ++++++++++++++++to 8.00065e-008
Heightened Def Con from 8.00065e-008 ++++++++++++++++to 8.00065e-008
Heightened Def Con from 8.00065e-008 ++++++++++++++++to 8.00065e-008
Heightened Def Con from 8.00065e-008 ++++++++++++++++to 8.00065e-008
Heightened Def Con from 8.00065e-008 ++++++++++++++++to 8.00065e-008
Heightened Def Con from 8.00065e-008 ++++++++++++++++to 8.00065e-008
Heightened Def Con from 8.00065e-008 ++++++++++++++++to 8.00065e-008
Heightened Def Con from 8.00065e-008 ++++++++++++++++to 8.00065e-008
Heightened Def Con from 8.00065e-008 ++++++++++++++++to 8.00065e-008
Heightened Def Con from 8.00065e-008 ++++++++++++++++to 8.00065e-008
Heightened Def Con from 8.00065e-008 ++++++++++++++++to 8.00065e-008
Heightened Def Con from 8.00065e-008 ++++++++++++++++to 8.00065e-008
Heightened Def Con from 8.00065e-008 ++++++++++++++++to 8.00065e-008
Heightened Def Con from 8.00065e-008 ++++++++++++++++to 8.00065e-008
Heightened Def Con from 8.00065e-008 ++++++++++++++++to 8.00065e-008
Heightened Def Con from 8.00065e-008 ++++++++++++++++to 8.00065e-008
Heightened Def Con from 8.00065e-008 ++++++++++++++++to 8.00065e-008
Heightened Def Con from 8.00065e-008 ++++++++++++++++to 8.00065e-008
Heightened Def Con from 8.00065e-008 ++++++++++++++++to 8.00065e-008
Heightened Def Con from 8.00065e-008 ++++++++++++++++to 8.00065e-008
Heightened Def Con from 8.00065e-008 +++++++++++++++++to 8.00065e-008
Heightened Def Con from 8.00065e-008 +++++++++++++++++to 8.00065e-008
Heightened Def Con from 8.00065e-008 +++++++++++++++++to 8.00065e-008
Heightened Def Con from 8.00065e-008 +++++++++++++++++to 8.00065e-008
Heightened Def Con from 8.00065e-008 +++++++++++++++++to 8.00065e-008
Heightened Def Con from 8.00065e-008 +++++++++++++++++to 8.00065e-008
Heightened Def Con from 8.00065e-008 +++++++++++++++++to 8.00065e-008
Heightened Def Con from 8.00065e-008 +++++++++++++++++to 8.00065e-008
Heightened Def Con from 8.00065e-008 +++++++++++++++++to 8.00065e-008
Heightened Def Con from 8.00065e-008 +++++++++++++++++to 8.00065e-008
Heightened Def Con from 8.00065e-008 +++++++++++++++++to 8.00065e-008
Heightened Def Con from 8.00065e-008 +++++++++++++++++to 8.00065e-008
Heightened Def Con from 8.00065e-008 +++++++++++++++++to 8.00065e-008
Heightened Def Con from 8.00065e-008 +++++++++++++++++to 8.00065e-008
Heightened Def Con from 8.00065e-008 +++++++++++++++++to 8.00065e-008
Heightened Def Con from 8.00065e-008 +++++++++++++++++to 8.00065e-008
Heightened Def Con from 8.00065e-008 +++++++++++++++++to 8.00065e-008
Heightened Def Con from 8.00065e-008 +++++++++++++++++to 8.00065e-008
Heightened Def Con from 8.00065e-008 +++++++++++++++++to 8.00065e-008
Heightened Def Con from 8.00065e-008 ++++++++++++++++++to 8.00069e-008
Heightened Def Con from 8.00075e-008 ++++++++++to 8.00075e-008

Date: Thu Nov 13 10:09:15 2025
Total elapsed time: 4.447 seconds.

tnom = 27
temp = 27
method = modified trap
totiter = 695171
traniter = 695150
tranpoints = 71384
accept = 16693
rejected = 60134
matrix size = 49
fillins = 6
solver = Normal
Thread vector: 5.0/13.2[1] 1.9/1.0[4] 0.6/5.9[1] 0.1/0.7[1]  2592/500
Matrix Compiler1: 3.74 KB object code size  0.4/0.3/[0.2]
Matrix Compiler2: off  [0.2]/0.4/0.4

